  
       XFOIL         Version 6.97
  
 Calculated polar for: SG6043                                          
  
 1 1 Reynolds number fixed          Mach number fixed         
  
 xtrf =   1.000 (top)        1.000 (bottom)  
 Mach =   0.040     Re =     0.250 e 6     Ncrit =   9.000
  
   alpha    CL        CD       CDp       CM     Top_Xtr  Bot_Xtr
  ------ -------- --------- --------- -------- -------- --------
 -10.000  -0.1679   0.11649   0.11343  -0.0565   0.9778   0.0278
  -9.000  -0.1325   0.10137   0.09832  -0.0662   0.9673   0.0295
  -8.000  -0.1854   0.09854   0.09539  -0.0656   0.9685   0.0300
  -7.000  -0.1547   0.08490   0.08180  -0.0847   0.9445   0.0338
  -6.000  -0.0952   0.07207   0.06898  -0.0917   0.9269   0.0383
  -5.000   0.0201   0.04947   0.04593  -0.1300   0.9086   0.0480
  -3.000   0.3270   0.01798   0.01123  -0.1622   0.8923   0.0357
  -2.000   0.4626   0.01470   0.00779  -0.1665   0.8788   0.0583
  -1.000   0.6006   0.01221   0.00641  -0.1725   0.8640   0.4014
   0.000   0.7130   0.01059   0.00592  -0.1704   0.8455   1.0000
   1.000   0.8304   0.01064   0.00560  -0.1711   0.8188   1.0000
   2.000   0.9477   0.01065   0.00536  -0.1715   0.7883   1.0000
   3.000   1.0595   0.01069   0.00522  -0.1706   0.7507   1.0000
   4.000   1.1592   0.01092   0.00533  -0.1673   0.7005   1.0000
   5.000   1.2477   0.01149   0.00576  -0.1619   0.6302   1.0000
   6.000   1.3234   0.01270   0.00667  -0.1544   0.5376   1.0000
   7.000   1.3711   0.01478   0.00826  -0.1420   0.4194   1.0000
   8.000   1.4053   0.01791   0.01083  -0.1287   0.2975   1.0000
   9.000   1.4411   0.02179   0.01430  -0.1175   0.2025   1.0000
  10.000   1.4782   0.02629   0.01862  -0.1080   0.1435   1.0000
  11.000   1.5126   0.03159   0.02395  -0.0996   0.1084   1.0000
  12.000   1.5425   0.03790   0.03040  -0.0923   0.0851   1.0000
  13.000   1.5715   0.04489   0.03771  -0.0865   0.0691   1.0000
  14.000   1.5925   0.05339   0.04652  -0.0819   0.0575   1.0000
  15.000   1.6075   0.06345   0.05693  -0.0788   0.0485   1.0000
  16.000   1.6163   0.07523   0.06919  -0.0775   0.0417   1.0000
  17.000   1.6144   0.08945   0.08402  -0.0783   0.0365   1.0000
  18.000   1.6072   0.10518   0.10028  -0.0816   0.0330   1.0000
  19.000   1.5737   0.12653   0.12246  -0.0908   0.0308   1.0000
  20.000   1.5524   0.14626   0.14264  -0.1019   0.0288   1.0000
  22.000   0.9973   0.29918   0.29727  -0.1730   0.0409   1.0000
  23.000   0.9998   0.32054   0.31869  -0.1811   0.0353   1.0000
